168
extracted
H 64.270 66.680 18.280
C 64.000 66.660 17.220
C 62.980 67.430 16.680
H 62.610 68.290 17.250
C 62.500 67.250 15.380
H 61.970 68.090 14.920
C 63.030 66.170 14.640
C 64.000 65.320 15.200
H 64.120 64.290 14.840
C 64.540 65.660 16.430
H 65.280 65.000 16.920
N 62.490 65.740 13.420
C 61.170 66.100 13.070
C 59.980 66.030 13.780
H 60.010 66.180 14.860
C 58.730 66.000 13.160
C 58.700 66.400 11.810
H 57.740 66.660 11.360
C 59.860 66.580 11.060
H 59.860 67.150 10.130
C 61.100 66.330 11.640
C 62.350 65.870 11.060
C 63.160 65.520 12.200
C 64.380 64.920 11.920
H 64.920 64.470 12.750
C 64.880 64.760 10.630
H 65.750 64.110 10.490
C 64.150 65.300 9.570
H 64.510 65.000 8.580
C 62.870 65.780 9.770
H 62.240 66.130 8.950
C 57.580 65.280 13.730
C 56.550 64.620 13.050
C 55.310 64.410 13.680
C 55.150 64.730 15.030
H 54.200 64.450 15.510
C 56.210 65.280 15.750
H 56.040 65.510 16.810
C 57.420 65.530 15.110
H 58.280 65.670 15.770
C 54.220 63.780 12.890
O 53.070 63.910 13.310
C 54.460 63.200 11.550
C 53.430 62.680 10.790
H 52.370 62.790 11.060
C 53.670 62.150 9.520
H 52.930 61.420 9.160
C 54.900 62.300 8.910
H 55.160 61.730 8.010
C 55.870 63.110 9.550
C 55.700 63.420 10.900
C 56.800 63.890 11.780
O 57.930 63.400 11.680
C 57.070 63.290 8.720
C 57.840 64.460 8.880
H 57.330 65.370 9.230
C 59.140 64.610 8.410
H 59.730 65.530 8.490
C 59.620 63.590 7.600
C 58.960 62.310 7.500
C 57.680 62.240 8.050
H 57.170 61.280 8.070
N 59.770 61.340 6.870
C 61.010 61.940 6.560
C 60.880 63.340 6.920
C 61.960 64.180 6.700
H 61.800 65.230 6.450
C 63.140 63.630 6.200
H 64.000 64.260 5.980
C 63.290 62.300 5.860
H 64.260 61.880 5.540
C 62.210 61.450 6.050
H 62.200 60.470 5.580
C 59.370 60.020 6.660
C 59.870 59.370 5.510
H 60.050 59.960 4.600
C 59.770 58.000 5.330
H 60.200 57.530 4.430
C 59.210 57.260 6.370
H 58.970 56.210 6.270
C 58.880 57.870 7.570
H 58.340 57.310 8.350
C 58.890 59.250 7.740
H 58.490 59.870 8.560
H 51.370 58.400 10.980
C 50.970 59.300 11.450
C 49.760 59.870 11.060
H 49.390 59.600 10.060
C 49.230 60.960 11.730
H 48.230 61.330 11.450
C 49.750 61.500 12.920
C 51.000 60.960 13.280
H 51.550 61.400 14.130
C 51.530 59.880 12.580
H 52.450 59.390 12.920
N 49.350 62.710 13.490
C 48.940 63.910 12.860
C 49.380 64.440 11.660
H 50.020 63.820 11.040
C 49.120 65.730 11.190
C 48.330 66.500 12.060
H 48.170 67.550 11.790
C 47.910 66.090 13.320
H 47.210 66.680 13.920
C 48.270 64.830 13.770
C 48.360 64.180 15.070
C 49.130 62.960 14.860
C 49.500 62.200 15.960
H 49.970 61.220 15.920
C 49.260 62.730 17.220
H 49.400 62.070 18.090
C 48.640 63.960 17.420
H 48.650 64.390 18.420
C 48.100 64.660 16.350
H 48.010 65.740 16.370
C 49.770 66.270 9.990
C 50.010 67.630 9.750
C 50.130 68.110 8.420
C 50.140 67.210 7.360
H 50.480 67.630 6.400
C 49.910 65.860 7.540
H 49.730 65.110 6.750
C 49.720 65.440 8.860
H 49.530 64.390 9.130
C 50.110 69.570 8.180
O 50.190 70.010 7.030
C 50.090 70.500 9.330
C 50.150 71.850 9.040
H 50.490 72.170 8.040
C 50.350 72.810 10.030
H 50.830 73.720 9.640
C 50.250 72.340 11.330
H 50.760 73.000 12.050
C 50.040 71.000 11.710
C 50.040 70.060 10.670
C 50.200 68.590 10.860
O 51.070 68.240 11.670
C 49.320 70.740 12.960
C 48.300 71.650 13.310
H 47.930 72.450 12.650
C 47.880 71.790 14.620
H 47.070 72.460 14.910
C 48.410 71.010 15.640
C 49.490 70.110 15.290
C 49.900 69.980 13.970
H 50.910 69.610 13.800
N 49.840 69.280 16.380
C 48.940 69.610 17.420
C 48.140 70.750 17.040
C 47.390 71.390 18.020
H 46.700 72.200 17.800
C 47.540 71.000 19.350
H 47.100 71.660 20.100
C 48.260 69.870 19.720
H 47.980 69.420 20.680
C 48.970 69.180 18.740
H 49.550 68.310 19.040
C 50.750 68.220 16.320
C 51.380 67.690 17.470
H 51.460 68.270 18.390
C 51.940 66.420 17.510
H 52.140 66.060 18.530
C 51.870 65.550 16.430
H 52.220 64.520 16.420
C 51.310 66.060 15.260
H 51.160 65.470 14.350
C 50.790 67.350 15.210
H 50.390 67.610 14.220
